223
XYZ file

 S    0.470445    1.829739   -1.565340
 S    0.470445    1.829739    1.565340
 S    3.853081    1.251942    1.565340
 S    2.768865    4.588816   -1.565340
 S    2.768865    4.588816    1.565340
 S    1.684649    7.925691    1.565340
 S    1.684649    7.925691   -1.565340
 S    5.165864    7.044531   -1.565340
 S    9.632717    3.129860    1.565340
 S    6.250081    3.707657   -1.565340
 S    3.853081    1.251942   -1.565340
 S    9.632717    3.129860   -1.565340
 S    5.165864    7.044531    1.565340
 S    6.250081    3.707657    1.565340
 S    7.334297    0.370782   -1.565340
 S    7.334297    0.370782    1.565340
 S   13.113934    2.248700   -1.565340
 S   16.496571    1.159030    1.665340
 S    7.464285    9.803608    1.565340
 S    8.548501    6.466734    1.565340
 S    8.548501    6.466734   -1.565340
 S   10.945500    8.922448    1.565340
 S    7.464285    9.803608   -1.565340
 S   13.113934    2.248700    1.565340
 S   22.276205    3.548820   -1.565340
 S   17.809353    7.463492    1.565340
 S   18.893568    4.126617    1.565340
 S   21.191990    6.885695   -1.565340
 S   17.809353    7.463492   -1.565340
 S   15.412354    5.007777    1.565340
 S   15.412354    5.007777   -1.565340
 S   12.029716    5.585574   -1.565340
 S   16.496569    1.159030   -1.565340
 S   12.029716    5.585574    1.565340
 S   14.328137    8.344651   -1.565340
 S   21.191990    6.885695    1.565340
 S   14.328137    8.344651    1.565340
 S   10.945500    8.922448   -1.565340
 S   25.757423    2.167660    1.565340
 S   25.757421    2.167660   -1.565340
 S   28.055843    5.426738   -1.565340
 S   29.040058    1.689864    1.565340
 S   29.040058    1.689864   -1.565340
 S   19.777784    0.489743   -1.565340
 S   19.777784    0.489743    1.565340
 S   22.276205    3.548820    1.565340
 S   18.893568    4.126617   -1.565340
 S   33.835476    7.304656   -1.565340
 S   28.055843    5.426738    1.565340
 S   24.673204    6.004535   -1.565340
 S   31.537058    4.545578    1.565340
 S   31.537058    4.545578   -1.565340
 S   34.919693    3.967781   -1.565340
 S   32.421272    0.908704    1.565340
 S   34.919693    3.967781    1.565340
 S   26.971626    8.763612    1.565340
 S   24.673204    6.004535    1.565340
 S   23.588989    9.341409    1.565340
 S   26.971626    8.763612   -1.565340
 S   23.588989    9.341409   -1.565340
 S   32.421272    0.908704   -1.565340
 S   30.452843    7.882453    1.565340
 S   33.835476    7.304656    1.565340
 S   30.452843    7.882453   -1.565340
 S   38.400909    3.086621   -1.565340
 S   37.316692    6.423496   -1.565340
 S   37.316692    6.423496    1.565340
 S   38.400909    3.086621    1.565340
 S   39.615112    9.182572   -1.565340
 S   36.232475    9.760369   -1.565340
 S   36.232475    9.760369    1.565340
 S   39.615112    9.182572    1.565340
 S   13.743999   -1.221599    1.565340
Mo   19.174210   -1.608377    0.000000
 S   15.851396   -3.009309   -1.565340
 S   15.851396   -3.009309    1.565340
 S   13.744000   -1.221600   -1.565340
 S   37.632030   -2.536932   -1.565340
 S   34.413681   -3.727864    1.565340
 S   37.632030   -2.536932    1.565340
 S   34.413681   -3.727864   -1.565340
 S   35.024635   -0.189223   -1.565340
 S   37.021080   -6.075574    1.565340
 S   37.021080   -6.075574   -1.565340
 S   40.239426   -4.884642   -1.565340
 S   40.239426   -4.884642    1.565340
 S   35.024635   -0.189223    1.565340
Mo   31.806290   -1.080154    0.000000
 S   22.325144   -0.800877    1.565340
 S   25.843493   -0.009945    1.565340
 S   30.347332   -8.244006   -1.565340
 S   25.843493   -0.009945   -1.565340
 S   36.173073   -9.400784    1.565340
 S   25.132540   -3.548587    1.565340
 S   28.350887   -2.357655    1.565340
 S   22.325144   -0.800880   -1.565340
 S   30.347332   -8.244006    1.565340
 S   28.350887   -2.357655   -1.565340
 S   30.958284   -4.705365    1.565340
 S   27.739937   -5.896297    1.565340
 S   36.173073   -9.400784   -1.565340
 S   25.132540   -3.548587   -1.565340
 S   33.565678   -7.053075    1.565340
 S   30.958284   -4.705365   -1.565340
 S   27.739937   -5.896297   -1.565340
 S   33.565678   -7.053075   -1.565340
 S   12.395993   -4.346810   -1.565340
 S   12.395993   -4.346810    1.565340
 S    9.177646   -5.537742   -1.565340
 S   17.610785   -9.042230    1.565340
 S   17.610785   -9.042230   -1.565340
 S    9.177646   -5.537742    1.565340
 S   11.785042   -7.885452   -1.565340
 S   11.785042   -7.885452    1.565340
 S    3.962854   -0.842322    1.565340
 S   15.003390   -6.694520    1.565340
 S    3.962854   -0.842322   -1.565340
 S   15.003390   -6.694520   -1.565340
 S    9.788597   -1.909100    1.565340
 S    6.570250   -3.190032    1.565340
 S    9.788597   -1.999100   -1.565340
 S    6.570250   -3.190032   -1.565340
 S   26.891932   -9.221507    1.565340
 S    0.507452   -1.819823   -1.565340
 S    0.507452   -1.819823    1.565340
 S   18.458790   -5.717019    1.565340
 S   21.677137   -4.526087   -1.565340
 S   24.284534   -6.873797    1.565340
 S   24.284534   -6.873797   -1.565340
 S   21.066187   -8.064729    1.565340
 S   21.677137   -4.526087    1.565340
 S   21.066187   -8.064729   -1.565340
 S   26.891932   -9.221507   -1.565340
 S   18.458790   -5.717019   -1.565340
 S    3.114849   -4.167532   -1.565340
 S    2.503897   -7.706174    1.565340
 S    3.114849   -4.167532    1.565340
 S    5.722244   -6.515243   -1.565340
 S    5.111293  -10.053884   -1.565340
 S    5.722244   -6.515243    1.565340
 S    5.111293  -10.053884    1.565340
 S    8.329640   -8.862952   -1.565340
 S    8.329640   -8.862952    1.565340
 S    2.503897   -7.706174   -1.565340
 S   39.628475   -8.423284    1.565340
 S   39.628475   -8.423284   -1.565340
Mo   26.599751    6.630507    0.000000
Mo   23.118544    7.511671    0.000000
Mo   34.547817    1.834676    0.000000
Mo   28.898182    9.389587    0.000000
Mo   29.982397    6.052713    0.000000
Mo   25.515535    9.967381    0.000000
Mo   24.402761    4.004796    0.000000
Mo   27.683968    3.293633    0.000000
Mo    0.228558    9.129460    0.000000
Mo    2.396990    2.455711    0.000000
Mo    9.504299    0.900000    0.000000
Mo    1.312774    5.792586    0.000000
Mo    0.000000    0.000000    0.000000
Mo    4.695420    5.214792    0.000000
Mo    3.611204    8.551666    0.000000
Mo    7.092410    7.670504    0.000000
Mo    8.176625    4.333629    0.000000
Mo    5.779636    1.877918    0.000000
Mo   12.872046    9.548421    0.000000
Mo   15.040479    2.874672    0.000000
Mo   11.559272    3.755835    0.000000
Mo   13.956263    6.211547    0.000000
Mo   10.475056    7.092710    0.000000
Mo   12.643489    0.418961    0.000000
Mo   18.423124    2.296878    0.000000
Mo   19.735897    8.089463    0.000000
Mo   16.254690    8.970627    0.000000
Mo   21.904331    1.415715    0.000000
Mo   17.338907    5.633753    0.000000
Mo   20.820114    4.752590    0.000000
Mo   33.463600    5.171550    0.000000
Mo   32.379383    8.508425    0.000000
Mo   31.066614    2.715839    0.000000
Mo   40.327454    3.712594    0.000000
Mo   36.846249    4.593757    0.000000
 S   37.930462    1.256882    1.565340
Mo   39.243237    7.049469    0.000000
Mo   35.762032    7.930632    0.000000
Mo   30.450832   -2.885542    0.000000
Mo   33.058224   -5.233252    0.000000
Mo   35.665623   -7.580963    0.000000
Mo   29.602833   -6.210746    0.000000
Mo   32.210224   -8.558455    0.000000
Mo   38.273018   -9.928672    0.000000
Mo   26.995438   -3.863036    0.000000
Mo   28.043436   -0.337832    0.000000
Mo   24.388041   -1.515326    0.000000
Mo   38.883976   -6.390023    0.000000
Mo   33.669182   -1.694603    0.000000
Mo   37.124577   -0.717110    0.000000
Mo   39.731976   -3.064820    0.000000
Mo   36.276581   -4.042313    0.000000
Mo   22.929083   -8.379178    0.000000
Mo   10.429584   -9.390840    0.000000
Mo   26.384478   -7.401685    0.000000
Mo   28.991875   -9.749394    0.000000
Mo   20.321688   -6.031468    0.000000
Mo   23.777082   -5.053975    0.000000
Mo   15.368950   -0.800490    0.000000
Mo   18.002911   -3.583758    0.000000
Mo   21.169685   -2.706265    0.000000
Mo    4.366793   -8.020623    0.000000
Mo    5.214792   -4.695420    0.000000
Mo    2.607396   -2.347710    0.000000
Mo    7.822188   -7.043130    0.000000
Mo    1.759398   -5.672914    0.000000
Mo   13.647939   -8.199901    0.000000
Mo    8.433146   -3.504481    0.000000
Mo   11.888541   -2.526987    0.000000
Mo   14.495937   -4.874697    0.000000
Mo   17.103333   -7.222407    0.000000
Mo    6.055850   -1.223855    0.000000
 S   37.930462    1.256882   -1.565340
Mo   11.159000   -5.958915    0.000000
Mo   10.585970   -0.410000    0.000000
 S   -0.327740    5.292586    1.565340
 S   -0.327740    5.292586   -1.565340
